tests/data/power_flow/pandapower-test-shunt/pgm_sym_output.json
{
  "line": [
    {
      "id": 3,
      "energized": 1,
      "loading": 0.019533918486322223,
      "p_from": 1178.4692830205381,
      "q_from": -355264.8616469999,
      "i_from": 19.53391848632222,
      "s_from": 355266.816225373,
      "p_to": -1103.300624979121,
      "q_to": 8826.405000381801,
      "i_to": 0.4889258315545491,
      "s_to": 8895.094012985146
    }
  ],
  "node": [
    {
      "id": 1,
      "energized": 1,
      "u_pu": 1.0000353371933772,
      "u": 10500.371040530461,
      "u_angle": -3.652150516798196e-06
    },
    {
      "id": 2,
      "energized": 1,
      "u_pu": 1.0003630293615997,
      "u": 10503.811808296798,
      "u_angle": -0.0004184871329528333
    }
  ],
  "shunt": [
    {
      "id": 6,
      "energized": 1,
      "p": 1103.3006250411522,
      "q": -8826.405000329218,
      "i": 0.488925831552104,
      "s": 8895.094012940663,
      "pf": 0.12403473458920845
    },
    {
      "id": 7,
      "energized": 1,
      "p": -0.0,
      "q": -0.0,
      "i": 0.0,
      "s": 0.0,
      "pf": 0.0
    }
  ],
  "source": [
    {
      "id": 4,
      "energized": 1,
      "p": 1178.469282839909,
      "q": -355264.8616478881,
      "i": 19.533918486371025,
      "s": 355266.8162262606,
      "pf": 0.0033171386378213585
    }
  ]
}