tests/data/power_flow/pandapower-test-shunt/sym_output.json
{
  "line": [
    {
      "id": 3,
      "loading": 0.019533918487539804,
      "p_from": 1178.4692754606385,
      "q_from": -355264.8616691701,
      "i_from": 19.533918487539804,
      "s_from": 355266.81624751806,
      "p_to": -1103.3006174067032,
      "q_to": 8826.405022499308,
      "i_to": 0.4889258327092123,
      "s_to": 8895.094033992615
    }
  ],
  "node": [
    {
      "id": 1,
      "u_pu": 1.0000353371933788,
      "u": 10500.371040530477,
      "u_angle": -3.652150515048616e-06
    },
    {
      "id": 2,
      "u_pu": 1.0003630293616586,
      "u": 10503.811808297416,
      "u_angle": -0.000418487132987631
    }
  ],
  "shunt": [
    {
      "id": 6,
      "p": 1103.3006250412823,
      "q": -8826.405000330258,
      "i": 0.48892583155213276,
      "s": 8895.09401294171
    },
    {
      "id": 7,
      "p": 0.0,
      "q": -0.0,
      "i": 0.0,
      "s": 0.0
    }
  ],
  "source": [
    {
      "id": 4,
      "p": 1178.4692638641984,
      "q": -355264.8616617234,
      "i": 19.533918487128243,
      "s": 355266.81624003296
    }
  ]
}